[TITLE]
;;Project Title/Notes

[OPTIONS]
;;Option             Value
FLOW_UNITS           CMS
INFILTRATION         MODIFIED_GREEN_AMPT
FLOW_ROUTING         DYNWAVE
LINK_OFFSETS         DEPTH
MIN_SLOPE            0
ALLOW_PONDING        NO
SKIP_STEADY_STATE    NO

START_DATE           06/24/2019
START_TIME           08:59:30
REPORT_START_DATE    06/24/2019
REPORT_START_TIME    08:59:30
END_DATE             06/24/2019
END_TIME             15:05:00
SWEEP_START          01/01
SWEEP_END            12/31
DRY_DAYS             10
REPORT_STEP          00:01:00
WET_STEP             00:01:00
DRY_STEP             01:00:00
ROUTING_STEP         0:00:30 
RULE_STEP            00:00:00

INERTIAL_DAMPING     PARTIAL
NORMAL_FLOW_LIMITED  BOTH
FORCE_MAIN_EQUATION  H-W
VARIABLE_STEP        0.00
LENGTHENING_STEP     0
MIN_SURFAREA         10
MAX_TRIALS           8
HEAD_TOLERANCE       0.0015
SYS_FLOW_TOL         5
LAT_FLOW_TOL         5
MINIMUM_STEP         0.5
THREADS              1

[FILES]
;;Interfacing Files
;;SAVE RUNOFF "C:\Users\999ga\OneDrive\博士课题\毕业论文\swmm_model\result\tianhe.rof"
;;SAVE OUTFLOWS "C:\Users\999ga\OneDrive\博士课题\毕业论文\swmm_model\result\outflow.txt"

[EVAPORATION]
;;Data Source    Parameters
;;-------------- ----------------
CONSTANT         0.0
DRY_ONLY         NO

[RAINGAGES]
;;Name           Format    Interval SCF      Source    
;;-------------- --------- ------ ------ ----------
g1                VOLUME    0:01     1.0      TIMESERIES       STA01      MM   

[SUBCATCHMENTS]
;;Name           Rain Gage        Outlet           Area     %Imperv  Width    %Slope   CurbLen  SnowPack        
;;-------------- ---------------- ---------------- -------- -------- -------- -------- -------- ----------------
s31               g1                j23               0.12     20       15.26    0.5      0                        
s32               g1                j24               0.24     60       30.99    0.5      0                        
s33               g1                j25               0.23     60       28.35    0.5      0                        
s34               g1                j26               0.32     40       38.94    0.5      0                        
s35               g1                j1                0.31     75       45.26    0.5      0                        
s36               g1                j2                0.20     10       31.75    0.5      0                        
s37               g1                j3                0.26     5        32.50    0.5      0                        
s38               g1                j2                0.51     80       44.29    0.5      0                        
s39               g1                j8                0.80     75       44.44    0.5      0                        
s40               g1                j3                0.58     90       49.11    0.5      0                        
s41               g1                j27               0.64     5        48.70    0.5      0                        
s42               g1                j28               0.76     0        43.93    0.5      0                        
s43               g1                j29               0.75     0        46.37    0.5      0                        
s46               g1                j13               0.34     75       31.69    0.5      0                        
s47               g1                j10               0.39     75       41.14    0.5      0                        
s48               g1                j11               0.37     60       61.36    0.5      0                        
s49               g1                j12               0.42     60       65.57    0.5      0                        
s50               g1                j14               0.16     100      27.59    0.5      0                        
s51               g1                j15               0.18     100      32.43    0.5      0                        
s52               g1                j4                0.72     75       70.59    0.5      0                        
s53               g1                j9                0.59     60       70.55    0.5      0                        
s54               g1                j16               0.14     100      29.93    0.5      0                        
s55               g1                j17               0.12     100      29.11    0.5      0                        
s56               g1                j6                0.26     50       33.10    0.5      0                        
s57               g1                j7                0.22     80       30.26    0.5      0                        
s58               g1                j18               0.22     100      29.87    0.5      0                        
s59               g1                j6                0.16     0        27.46    0.5      0                        
s60               g1                j7                0.13     0        29.31    0.5      0                        
s61               g1                j19               0.13     0        36.92    0.5      0                        
s62               g1                j20               0.27     0        23.65    0.5      0                        
s63               g1                j22               0.45     0        35.71    0.5      0                        
s64               g1                j21               0.20     0        35.63    0.5      0                        

[SUBAREAS]
;;Subcatchment   N-Imperv   N-Perv     S-Imperv   S-Perv     PctZero    RouteTo    PctRouted 
;;-------------- ---------- ---------- ---------- ---------- ---------- ---------- ----------
s31               0.01       0.1        0.05       0.05       25         OUTLET    
s32               0.01       0.1        0.05       0.05       25         OUTLET    
s33               0.01       0.1        0.05       0.05       25         OUTLET    
s34               0.01       0.1        0.05       0.05       25         OUTLET    
s35               0.01       0.1        0.05       0.05       25         OUTLET    
s36               0.01       0.1        0.05       0.05       25         OUTLET    
s37               0.01       0.1        0.05       0.05       25         OUTLET    
s38               0.01       0.1        0.05       0.05       25         OUTLET    
s39               0.01       0.1        0.05       0.05       25         OUTLET    
s40               0.01       0.1        0.05       0.05       25         OUTLET    
s41               0.01       0.1        0.05       0.05       25         OUTLET    
s42               0.01       0.1        0.05       0.05       25         OUTLET    
s43               0.01       0.1        0.05       0.05       25         OUTLET    
s46               0.01       0.1        0.05       0.05       25         OUTLET    
s47               0.01       0.1        0.05       0.05       25         OUTLET    
s48               0.01       0.1        0.05       0.05       25         OUTLET    
s49               0.01       0.1        0.05       0.05       25         OUTLET    
s50               0.01       0.1        0.05       0.05       25         OUTLET    
s51               0.01       0.1        0.05       0.05       25         OUTLET    
s52               0.01       0.1        0.05       0.05       25         OUTLET    
s53               0.01       0.1        0.05       0.05       25         OUTLET    
s54               0.01       0.1        0.05       0.05       25         OUTLET    
s55               0.01       0.1        0.05       0.05       25         OUTLET    
s56               0.01       0.1        0.05       0.05       25         OUTLET    
s57               0.01       0.1        0.05       0.05       25         OUTLET    
s58               0.01       0.1        0.05       0.05       25         OUTLET    
s59               0.01       0.1        0.05       0.05       25         OUTLET    
s60               0.01       0.1        0.05       0.05       25         OUTLET    
s61               0.01       0.1        0.05       0.05       25         OUTLET    
s62               0.01       0.1        0.05       0.05       25         OUTLET    
s63               0.01       0.1        0.05       0.05       25         OUTLET    
s64               0.01       0.1        0.05       0.05       25         OUTLET    

[INFILTRATION]
;;Subcatchment   Suction    Ksat       IMD       
;;-------------- ---------- ---------- ----------
s31               300        20        0.4         
s32               300        20        0.4         
s33               300        20        0.4         
s34               300        20        0.4         
s35               300        20        0.4         
s36               300        20        0.4         
s37               300        20        0.4         
s38               300        20        0.4         
s39               300        20        0.4         
s40               300        20        0.4         
s41               300        20        0.4         
s42               300        20        0.4         
s43               300        20        0.4         
s46               300        20        0.4         
s47               300        20        0.4         
s48               300        20        0.4         
s49               300        20        0.4         
s50               300        20        0.4         
s51               300        20        0.4         
s52               300        20        0.4         
s53               300        20        0.4         
s54               300        20        0.4         
s55               300        20        0.4         
s56               300        20        0.4         
s57               300        20        0.4         
s58               300        20        0.4         
s59               300        20        0.4         
s60               300        20        0.4         
s61               300        20        0.4         
s62               300        20        0.4         
s63               300        20        0.4         
s64               300        20        0.4       

[JUNCTIONS]
;;Name           Elevation  MaxDepth   InitDepth  SurDepth   Aponded   
;;-------------- ---------- ---------- ---------- ---------- ----------
j1                37.30      2.2        0          0          0         
j2                36.17      2.2        0          0          0         
j3                34.93      2.2        0          0          0         
j4                34.16      2.2        0          0          0         
j6                32.89      2.2        0          0          0         
j7                32.25      2.2        0          0          0         
j8                35.22      2.2        0          0          0         
j9                33.98      2.2        0          0          0         
j10               37.45      2.2        0          0          0         
j11               36.50      2.2        0          0          0         
j12               37.39      2.2        0          0          0         
j13               35.85      2.2        0          0          0         
j14               34.93      2.2        0          0          0         
j15               34.05      2.2        0          0          0         
j16               33.26      2.2        0          0          0         
j17               32.56      2.2        0          0          0         
j18               31.47      2.2        0          0          0         
j19               30.93      2.2        0          0          0         
j20               30.33      2.2        0          0          0         
j21               29.76      2.2        0          0          0         
j22               29.10      2.2        0          0          0         
j23               35.08      2.2        0          0          0         
j24               34.47      2.2        0          0          0         
j25               33.87      2.2        0          0          0         
j26               33.18      2.2        0          0          0         
j27               32.36      2.2        0          0          0         
j28               31.15      2.2        0          0          0         
j29               30.08      2.2        0          0          0         

[OUTFALLS]
;;Name           Elevation  Type       Stage Data       Gated    Route To        
;;-------------- ---------- ---------- ---------------- -------- ----------------
j30               28.50      FREE                        NO                       

[CONDUITS]
;;Name           From Node        To Node          Length     Roughness  InOffset   OutOffset  InitFlow   MaxFlow   
;;-------------- ---------------- ---------------- ---------- ---------- ---------- ---------- ---------- ----------
l1                j1                j2                56.80      0.014      0          0          0          0         
l2                j2                j3                61.57      0.014      0          0          0          0         
l3                j3                j4                38.87      0.014      0          0          0          0         
l6                j8                j9                62.13      0.014      0          0          0          0         
l7                j9                j6                54.60      0.014      0          0          0          0         
l8                j6                j7                31.68      0.014      0          0          0          0         
l9                j7                j18               39.21      0.014      0          0          0          0         
l10               j10               j11               47.83      0.014      0          0          0          0         
l11               j12               j11               44.86      0.014      0          0          0          0         
l12               j11               j14               78.30      0.014      0          0          0          0         
l13               j13               j14               46.03      0.014      0          0          0          0         
l14               j14               j15               43.70      0.014      0          0          0          0         
l15               j15               j16               39.49      0.014      0          0          0          0         
l16               j16               j17               35.29      0.014      0          0          0          0         
l17               j17               j18               54.45      0.014      0          0          0          0         
l18               j18               j19               26.92      0.014      0          0          0          0         
l19               j19               j20               30.33      0.014      0          0          0          0         
l20               j20               j21               28.72      0.014      0          0          0          0         
l21               j21               j22               32.88      0.014      0          0          0          0         
l22               j23               j24               30.88      0.014      0          0          0          0         
l23               j24               j25               29.63      0.014      0          0          0          0         
l24               j25               j26               34.82      0.014      0          0          0          0         
l25               j26               j27               40.65      0.014      0          0          0          0         
l26               j27               j28               60.74      0.014      0          0          0          0         
l27               j28               j29               53.23      0.014      0          0          0          0         
l28               j29               j22               49.22      0.014      0          0          0          0         
l29               j22               j30               29.78      0.014      0          0          0          0         
l30               j4                j6                63.43      0.014      0          0          0          0         

[XSECTIONS]
;;Link           Shape        Geom1            Geom2      Geom3      Geom4      Barrels    Culvert   
;;-------------- ------------ ---------------- ---------- ---------- ---------- ---------- ----------
l1                CIRCULAR     1.2              0          0          0          1                    
l2                CIRCULAR     1.2              0          0          0          1                    
l3                CIRCULAR     1.2              0          0          0          1                    
l6                CIRCULAR     1.2              0          0          0          1                    
l7                CIRCULAR     1.2              0          0          0          1                    
l8                CIRCULAR     1.2              0          0          0          1                    
l9                CIRCULAR     1.2              0          0          0          1                    
l10               CIRCULAR     1.2              0          0          0          1                    
l11               CIRCULAR     1.2              0          0          0          1                    
l12               CIRCULAR     1.2              0          0          0          1                    
l13               CIRCULAR     1.2              0          0          0          1                    
l14               CIRCULAR     1.2              0          0          0          1                    
l15               CIRCULAR     1.2              0          0          0          1                    
l16               CIRCULAR     1.2              0          0          0          1                    
l17               CIRCULAR     1.2              0          0          0          1                    
l18               CIRCULAR     1.2              0          0          0          1                    
l19               CIRCULAR     1.2              0          0          0          1                    
l20               CIRCULAR     1.2              0          0          0          1                    
l21               CIRCULAR     1.2              0          0          0          1                    
l22               CIRCULAR     1.2              0          0          0          1                    
l23               CIRCULAR     1.2              0          0          0          1                    
l24               CIRCULAR     1.2              0          0          0          1                    
l25               CIRCULAR     1.2              0          0          0          1                    
l26               CIRCULAR     1.2              0          0          0          1                    
l27               CIRCULAR     1.2              0          0          0          1                    
l28               CIRCULAR     1.2              0          0          0          1                    
l29               CIRCULAR     1.2              0          0          0          1                    
l30               CIRCULAR     1.2              0          0          0          1                    
[TIMESERIES]
STA01            06/24/2019 05:30      0.2       
STA01            06/24/2019 05:32      0.2       
STA01            06/24/2019 05:33      0.2       
STA01            06/24/2019 05:34      0.2       
STA01            06/24/2019 05:35      0.2       
STA01            06/24/2019 05:36      0.2       
STA01            06/24/2019 05:37      0.2       
STA01            06/24/2019 05:41      0.2       
STA01            06/24/2019 05:45      0.2       
STA01            06/24/2019 05:46      0.2       
STA01            06/24/2019 05:47      0.2       
STA01            06/24/2019 05:48      1.8       
STA01            06/24/2019 05:49      1.2       
STA01            06/24/2019 05:50      1.2       
STA01            06/24/2019 05:51      1.2       
STA01            06/24/2019 05:52      1.0       
STA01            06/24/2019 05:53      0.6       
STA01            06/24/2019 05:54      0.6       
STA01            06/24/2019 05:55      0.2       
STA01            06/24/2019 05:56      0.2       
STA01            06/24/2019 05:57      0.2       
STA01            06/24/2019 05:58      0.2       
STA01            06/24/2019 05:59      0.2       
STA01            06/24/2019 06:03      0.2       
STA01            06/24/2019 06:06      0.2       
STA01            06/24/2019 06:29      0.2       
STA01            06/24/2019 06:52      0.2       
STA01            06/24/2019 07:11      0.2       
STA01            06/24/2019 07:41      0.2       
STA01            06/24/2019 07:42      0.2       
STA01            06/24/2019 07:43      1.2       
STA01            06/24/2019 07:44      1.4       
STA01            06/24/2019 07:45      0.8       
STA01            06/24/2019 07:46      0.2       
STA01            06/24/2019 07:47      0.2       
STA01            06/24/2019 07:48      0.2       
STA01            06/24/2019 07:49      0.4       
STA01            06/24/2019 07:50      0.4       
STA01            06/24/2019 07:51      0.4       
STA01            06/24/2019 07:52      0.8       
STA01            06/24/2019 07:53      1.2       
STA01            06/24/2019 07:54      0.6       
STA01            06/24/2019 07:55      0.6       
STA01            06/24/2019 07:56      0.6       
STA01            06/24/2019 07:57      0.2       
STA01            06/24/2019 08:14      0.2       
STA01            06/24/2019 08:15      0.2       
STA01            06/24/2019 08:17      0.2       
STA01            06/24/2019 08:47      0.2       
STA01            06/24/2019 08:49      0.2       
STA01            06/24/2019 08:56      0.2       
STA01            06/24/2019 09:00      0.2       
STA01            06/24/2019 09:03      0.2       
STA01            06/24/2019 09:06      0.2       
STA01            06/24/2019 09:11      0.2       
STA01            06/24/2019 09:15      0.2       
STA01            06/24/2019 09:17      0.2       
STA01            06/24/2019 09:19      0.2       
STA01            06/24/2019 09:21      0.2       
STA01            06/24/2019 09:23      0.2       
STA01            06/24/2019 09:25      0.2       
STA01            06/24/2019 09:26      0.4       
STA01            06/24/2019 09:27      0.8       
STA01            06/24/2019 09:28      0.8       
STA01            06/24/2019 09:29      0.8       
STA01            06/24/2019 09:30      0.6       
STA01            06/24/2019 09:31      0.6       
STA01            06/24/2019 09:32      0.2       
STA01            06/24/2019 09:33      1.0       
STA01            06/24/2019 09:34      1.0       
STA01            06/24/2019 09:35      0.8       
STA01            06/24/2019 09:36      0.4       
STA01            06/24/2019 09:37      0.2       
STA01            06/24/2019 09:38      0.2       
STA01            06/24/2019 09:41      0.2       
STA01            06/24/2019 09:43      0.2       
STA01            06/24/2019 09:46      0.2       
STA01            06/24/2019 09:48      0.2       
STA01            06/24/2019 09:51      0.2       
STA01            06/24/2019 09:52      0.2       
STA01            06/24/2019 09:55      0.2       
STA01            06/24/2019 09:57      0.2       
STA01            06/24/2019 09:59      0.2       
STA01            06/24/2019 10:01      0.2       
STA01            06/24/2019 10:02      0.4       
STA01            06/24/2019 10:03      0.4       
STA01            06/24/2019 10:04      0.6       
STA01            06/24/2019 10:05      0.2       
STA01            06/24/2019 10:06      0.4       
STA01            06/24/2019 10:07      0.6       
STA01            06/24/2019 10:08      0.4       
STA01            06/24/2019 10:09      0.4       
STA01            06/24/2019 10:10      0.6       
STA01            06/24/2019 10:11      0.6       
STA01            06/24/2019 10:12      0.4       
STA01            06/24/2019 10:13      0.4       
STA01            06/24/2019 10:14      0.2       
STA01            06/24/2019 10:15      0.2       
STA01            06/24/2019 10:17      0.4       
STA01            06/24/2019 10:18      0.2       
STA01            06/24/2019 10:20      0.4       
STA01            06/24/2019 10:22      0.2       
STA01            06/24/2019 10:24      0.2       
STA01            06/24/2019 10:28      0.2       
STA01            06/24/2019 10:34      0.2       
STA01            06/24/2019 10:40      0.2       
STA01            06/24/2019 10:44      0.2       
STA01            06/24/2019 10:48      0.2       
STA01            06/24/2019 10:52      0.2       
STA01            06/24/2019 10:59      0.2       
STA01            06/24/2019 11:01      0.2       
STA01            06/24/2019 11:04      0.2       
STA01            06/24/2019 11:07      0.2       
STA01            06/24/2019 11:09      0.2       
STA01            06/24/2019 11:11      0.2       
STA01            06/24/2019 11:12      0.2       
STA01            06/24/2019 11:14      0.2       
STA01            06/24/2019 11:16      0.2       
STA01            06/24/2019 11:17      0.2       
STA01            06/24/2019 11:18      0.2       
STA01            06/24/2019 11:19      0.8       
STA01            06/24/2019 11:20      0.2       
STA01            06/24/2019 11:21      0.4       
STA01            06/24/2019 11:23      0.2       
STA01            06/24/2019 11:24      0.2       
STA01            06/24/2019 11:25      0.2       
STA01            06/24/2019 11:26      0.2       
STA01            06/24/2019 11:27      0.2       
STA01            06/24/2019 11:28      0.2       
STA01            06/24/2019 11:32      0.2       
STA01            06/24/2019 11:35      0.2       
STA01            06/24/2019 11:37      0.4       
STA01            06/24/2019 11:38      0.4       
STA01            06/24/2019 11:39      0.2       
STA01            06/24/2019 11:42      0.2       
STA01            06/24/2019 11:43      0.4       
STA01            06/24/2019 11:44      0.8       
STA01            06/24/2019 11:45      0.4       
STA01            06/24/2019 11:46      0.6       
STA01            06/24/2019 11:47      0.6       
STA01            06/24/2019 11:48      1.2       
STA01            06/24/2019 11:49      1.2       
STA01            06/24/2019 11:50      1.0       
STA01            06/24/2019 11:51      1.0       
STA01            06/24/2019 11:52      0.6       
STA01            06/24/2019 11:53      0.4       
STA01            06/24/2019 11:54      0.6       
STA01            06/24/2019 11:55      0.6       
STA01            06/24/2019 11:56      0.6       
STA01            06/24/2019 11:57      0.6       
STA01            06/24/2019 11:58      0.2       
STA01            06/24/2019 11:59      0.2       
STA01            06/24/2019 12:00      0.2       
STA01            06/24/2019 12:01      0.4       
STA01            06/24/2019 12:02      0.4       
STA01            06/24/2019 12:03      0.4       
STA01            06/24/2019 12:04      0.4       
STA01            06/24/2019 12:05      0.8       
STA01            06/24/2019 12:06      1.2       
STA01            06/24/2019 12:07      0.6       
STA01            06/24/2019 12:08      0.6       
STA01            06/24/2019 12:09      0.4       
STA01            06/24/2019 12:10      0.4       
STA01            06/24/2019 12:11      0.4       
STA01            06/24/2019 12:12      0.6       
STA01            06/24/2019 12:13      0.2       
STA01            06/24/2019 12:14      1.2       
STA01            06/24/2019 12:15      1.2       
STA01            06/24/2019 12:16      0.8       
STA01            06/24/2019 12:17      0.6       
STA01            06/24/2019 12:18      0.8       
STA01            06/24/2019 12:19      0.6       
STA01            06/24/2019 12:20      0.6       
STA01            06/24/2019 12:21      0.6       
STA01            06/24/2019 12:22      0.4       
STA01            06/24/2019 12:23      0.4       
STA01            06/24/2019 12:24      0.4       
STA01            06/24/2019 12:25      0.2       
STA01            06/24/2019 12:26      0.4       
STA01            06/24/2019 12:27      0.4       
STA01            06/24/2019 12:29      0.2       
STA01            06/24/2019 12:33      0.2       
STA01            06/24/2019 12:35      0.2       
STA01            06/24/2019 12:37      0.2       
STA01            06/24/2019 12:39      0.2       
STA01            06/24/2019 12:41      0.2       
STA01            06/24/2019 12:43      0.2       
STA01            06/24/2019 12:45      0.2       
STA01            06/24/2019 12:47      0.2       
STA01            06/24/2019 12:48      0.2       
STA01            06/24/2019 12:51      0.2       
STA01            06/24/2019 12:53      0.2       
STA01            06/24/2019 12:55      0.2       
STA01            06/24/2019 12:57      0.2       
STA01            06/24/2019 12:59      0.2       
STA01            06/24/2019 13:00      0.2       
STA01            06/24/2019 13:01      0.2       
STA01            06/24/2019 13:02      0.4       
STA01            06/24/2019 13:03      0.2       
STA01            06/24/2019 13:04      0.2       
STA01            06/24/2019 13:05      0.4       
STA01            06/24/2019 13:06      0.4       
STA01            06/24/2019 13:07      1.0       
STA01            06/24/2019 13:08      0.8       
STA01            06/24/2019 13:09      1.0       
STA01            06/24/2019 13:10      1.2       
STA01            06/24/2019 13:11      1.4       
STA01            06/24/2019 13:12      1.4       
STA01            06/24/2019 13:13      1.6       
STA01            06/24/2019 13:14      0.8       
STA01            06/24/2019 13:15      0.6       
STA01            06/24/2019 13:16      0.6       
STA01            06/24/2019 13:17      0.6       
STA01            06/24/2019 13:18      0.2       